<?xml version="1.0" encoding="UTF-8"?>

<!-- generated on 2026-04-30 13:49:28 by Eclipse SUMO netconvert Version 1.21.0
<netconvertConfiguration xmlns:xsi="http://www.w3.org/2001/XMLSchema-instance" xsi:noNamespaceSchemaLocation="http://sumo.dlr.de/xsd/netconvertConfiguration.xsd">

    <input>
        <opendrive-files value="chatt.xodr"/>
    </input>

    <output>
        <output-file value="C:\Users\xh8\ORNL_Work\00work_tes\tes_libOpenDRIVE\.tmp_sumo_validate\chatt.net.xml"/>
    </output>

    <junctions>
        <no-turnarounds value="true"/>
    </junctions>

    <formats>
        <opendrive.import-all-lanes value="true"/>
    </formats>

</netconvertConfiguration>
-->

<net version="1.20" junctionCornerDetail="5" rectangularLaneCut="true" limitTurnSpeed="5.50" xmlns:xsi="http://www.w3.org/2001/XMLSchema-instance" xsi:noNamespaceSchemaLocation="http://sumo.dlr.de/xsd/net_file.xsd">

    <location netOffset="-667733.00,-3878704.47" convBoundary="0.00,0.00,1378.95,912.75" origBoundary="0.000000,0.000000,0.000000,0.000000" projParameter="+proj=utm +zone=16 +ellps=WGS84 +datum=WGS84 +units=m +no_defs

        "/>

    <type id="driving" priority="1" speed="13.89" disallow="pedestrian tram rail_urban rail rail_electric rail_fast ship container cable_car subway aircraft wheelchair scooter drone" width="3.65"/>

    <edge id=":1_0" function="internal">
        <lane id=":1_0_0" index="0" disallow="pedestrian tram rail_urban rail rail_electric rail_fast ship container cable_car subway aircraft wheelchair scooter drone" speed="3.65" length="4.67" width="3.20" shape="1378.21,220.40 1379.62,220.68 1380.30,221.27 1380.23,222.16 1379.42,223.36">
            <param key="signalID" value="1717049910_0"/>
        </lane>
    </edge>
    <edge id=":10_0" function="internal">
        <lane id=":10_0_0" index="0" disallow="pedestrian tram rail_urban rail rail_electric rail_fast ship container cable_car subway aircraft wheelchair scooter drone" speed="7.01" length="11.24" width="3.20" shape="640.96,542.10 639.58,539.99 637.50,539.01 634.75,539.14 631.30,540.38">
            <param key="signalID" value="202678527_0 202678527_1 202678527_2 202678527_3 202678527_4"/>
        </lane>
    </edge>
    <edge id=":10_1" function="internal">
        <lane id=":10_1_0" index="0" disallow="pedestrian tram rail_urban rail rail_electric rail_fast ship container cable_car subway aircraft wheelchair scooter drone" speed="23.34" length="20.96" width="3.20" shape="640.96,542.10 639.05,538.62 636.31,534.83 633.11,530.21 629.86,524.25">
            <param key="signalID" value="202678527_0 202678527_1 202678527_2 202678527_3 202678527_4"/>
        </lane>
        <lane id=":10_1_1" index="1" disallow="pedestrian tram rail_urban rail rail_electric rail_fast ship container cable_car subway aircraft wheelchair scooter drone" speed="23.34" length="20.96" width="3.20" shape="640.96,542.10 632.76,522.90">
            <param key="signalID" value="202678527_0 202678527_1 202678527_2 202678527_3 202678527_4"/>
        </lane>
    </edge>
    <edge id=":10_3" function="internal">
        <lane id=":10_3_0" index="0" disallow="pedestrian tram rail_urban rail rail_electric rail_fast ship container cable_car subway aircraft wheelchair scooter drone" speed="9.38" length="7.43" width="3.20" shape="640.96,542.10 639.69,536.84 639.98,534.84">
            <param key="signalID" value="202678527_0 202678527_1 202678527_2 202678527_3 202678527_4"/>
        </lane>
    </edge>
    <edge id=":10_4" function="internal">
        <lane id=":10_4_0" index="0" disallow="pedestrian tram rail_urban rail rail_electric rail_fast ship container cable_car subway aircraft wheelchair scooter drone" speed="3.65" length="1.44" width="3.20" shape="640.96,542.10 641.27,540.69">
            <param key="signalID" value="202678527_0 202678527_1 202678527_2 202678527_3 202678527_4"/>
        </lane>
    </edge>
    <edge id=":10_19" function="internal">
        <lane id=":10_19_0" index="0" disallow="pedestrian tram rail_urban rail rail_electric rail_fast ship container cable_car subway aircraft wheelchair scooter drone" speed="9.38" length="12.04" width="3.20" shape="639.98,534.84 640.32,532.43 642.87,528.86 647.32,526.14">
            <param key="signalID" value="202678527_0 202678527_1 202678527_2 202678527_3 202678527_4"/>
        </lane>
    </edge>
    <edge id=":10_20" function="internal">
        <lane id=":10_20_0" index="0" disallow="pedestrian tram rail_urban rail rail_electric rail_fast ship container cable_car subway aircraft wheelchair scooter drone" speed="3.65" length="3.23" width="3.20" shape="641.27,540.69 641.87,540.02 642.76,540.10 643.94,540.93">
            <param key="signalID" value="202678527_0 202678527_1 202678527_2 202678527_3 202678527_4"/>
        </lane>
    </edge>
    <edge id=":10_5" function="internal">
        <lane id=":10_5_0" index="0" disallow="pedestrian tram rail_urban rail rail_electric rail_fast ship container cable_car subway aircraft wheelchair scooter drone" speed="7.47" length="11.97" width="3.20" shape="649.83,532.02 646.45,533.87 644.34,535.96 643.50,538.32 643.94,540.93">
            <param key="signalID" value="202678527_5 202678527_6"/>
        </lane>
    </edge>
    <edge id=":10_6" function="internal">
        <lane id=":10_6_0" index="0" disallow="pedestrian tram rail_urban rail rail_electric rail_fast ship container cable_car subway aircraft wheelchair scooter drone" speed="15.74" length="20.39" width="3.20" shape="649.83,532.02 631.30,540.38">
            <param key="signalID" value="202678527_5 202678527_6"/>
        </lane>
        <lane id=":10_6_1" index="1" disallow="pedestrian tram rail_urban rail rail_electric rail_fast ship container cable_car subway aircraft wheelchair scooter drone" speed="15.74" length="20.39" width="3.20" shape="648.58,529.08 629.93,537.50">
            <param key="signalID" value="202678527_7 202678527_8 202678527_9"/>
        </lane>
    </edge>
    <edge id=":10_8" function="internal">
        <lane id=":10_8_0" index="0" disallow="pedestrian tram rail_urban rail rail_electric rail_fast ship container cable_car subway aircraft wheelchair scooter drone" speed="9.34" length="4.35" width="3.20" shape="648.58,529.08 644.37,530.20">
            <param key="signalID" value="202678527_7 202678527_8 202678527_9"/>
        </lane>
    </edge>
    <edge id=":10_9" function="internal">
        <lane id=":10_9_0" index="0" disallow="pedestrian tram rail_urban rail rail_electric rail_fast ship container cable_car subway aircraft wheelchair scooter drone" speed="3.65" length="1.44" width="3.20" shape="648.58,529.08 647.16,528.81">
            <param key="signalID" value="202678527_7 202678527_8 202678527_9"/>
        </lane>
    </edge>
    <edge id=":10_21" function="internal">
        <lane id=":10_21_0" index="0" disallow="pedestrian tram rail_urban rail rail_electric rail_fast ship container cable_car subway aircraft wheelchair scooter drone" speed="9.34" length="14.87" width="3.20" shape="644.37,530.20 643.53,530.42 639.22,529.84 635.63,527.33 632.76,522.90">
            <param key="signalID" value="202678527_7 202678527_8 202678527_9"/>
        </lane>
    </edge>
    <edge id=":10_22" function="internal">
        <lane id=":10_22_0" index="0" disallow="pedestrian tram rail_urban rail rail_electric rail_fast ship container cable_car subway aircraft wheelchair scooter drone" speed="3.65" length="3.23" width="3.20" shape="647.16,528.81 646.48,528.24 646.53,527.34 647.32,526.14">
            <param key="signalID" value="202678527_7 202678527_8 202678527_9"/>
        </lane>
    </edge>
    <edge id=":10_10" function="internal">
        <lane id=":10_10_0" index="0" disallow="pedestrian tram rail_urban rail rail_electric rail_fast ship container cable_car subway aircraft wheelchair scooter drone" speed="6.61" length="9.14" width="3.20" shape="638.57,520.21 639.93,522.33 641.64,523.53 643.68,523.82 646.07,523.19">
            <param key="signalID" value="202678527_10 202678527_11"/>
        </lane>
    </edge>
    <edge id=":10_11" function="internal">
        <lane id=":10_11_0" index="0" disallow="pedestrian tram rail_urban rail rail_electric rail_fast ship container cable_car subway aircraft wheelchair scooter drone" speed="23.34" length="21.46" width="3.20" shape="638.57,520.21 640.93,526.62 642.15,532.23 642.92,537.00 643.94,540.93">
            <param key="signalID" value="202678527_10 202678527_11"/>
        </lane>
    </edge>
    <edge id=":10_12" function="internal">
        <lane id=":10_12_0" index="0" disallow="pedestrian tram rail_urban rail rail_electric rail_fast ship container cable_car subway aircraft wheelchair scooter drone" speed="9.28" length="5.38" width="3.20" shape="635.67,521.56 637.19,526.61 637.18,526.71">
            <param key="signalID" value="202678527_12 202678527_13"/>
        </lane>
    </edge>
    <edge id=":10_13" function="internal">
        <lane id=":10_13_0" index="0" disallow="pedestrian tram rail_urban rail rail_electric rail_fast ship container cable_car subway aircraft wheelchair scooter drone" speed="3.65" length="1.44" width="3.20" shape="635.67,521.56 635.45,522.98">
            <param key="signalID" value="202678527_12 202678527_13"/>
        </lane>
    </edge>
    <edge id=":10_23" function="internal">
        <lane id=":10_23_0" index="0" disallow="pedestrian tram rail_urban rail rail_electric rail_fast ship container cable_car subway aircraft wheelchair scooter drone" speed="9.28" length="13.89" width="3.20" shape="637.18,526.71 636.74,530.95 634.32,534.58 629.93,537.50">
            <param key="signalID" value="202678527_12 202678527_13"/>
        </lane>
    </edge>
    <edge id=":10_24" function="internal">
        <lane id=":10_24_0" index="0" disallow="pedestrian tram rail_urban rail rail_electric rail_fast ship container cable_car subway aircraft wheelchair scooter drone" speed="3.65" length="3.23" width="3.20" shape="635.45,522.98 634.89,523.68 633.99,523.66 632.76,522.90">
            <param key="signalID" value="202678527_12 202678527_13"/>
        </lane>
    </edge>
    <edge id=":10_14" function="internal">
        <lane id=":10_14_0" index="0" disallow="pedestrian tram rail_urban rail rail_electric rail_fast ship container cable_car subway aircraft wheelchair scooter drone" speed="6.53" length="9.03" width="3.20" shape="627.17,531.72 629.23,530.35 630.36,528.65 630.57,526.62 629.86,524.25">
            <param key="signalID" value="202678527_14 202678527_15"/>
        </lane>
    </edge>
    <edge id=":10_15" function="internal">
        <lane id=":10_15_0" index="0" disallow="pedestrian tram rail_urban rail rail_electric rail_fast ship container cable_car subway aircraft wheelchair scooter drone" speed="15.74" length="20.66" width="3.20" shape="627.17,531.72 646.07,523.19">
            <param key="signalID" value="202678527_14 202678527_15"/>
        </lane>
        <lane id=":10_15_1" index="1" disallow="pedestrian tram rail_urban rail rail_electric rail_fast ship container cable_car subway aircraft wheelchair scooter drone" speed="15.74" length="20.66" width="3.20" shape="628.55,534.61 647.32,526.14">
            <param key="signalID" value="202678527_16 202678527_17 202678527_18"/>
        </lane>
    </edge>
    <edge id=":10_17" function="internal">
        <lane id=":10_17_0" index="0" disallow="pedestrian tram rail_urban rail rail_electric rail_fast ship container cable_car subway aircraft wheelchair scooter drone" speed="9.02" length="5.27" width="3.20" shape="628.55,534.61 633.59,533.06">
            <param key="signalID" value="202678527_16 202678527_17 202678527_18"/>
        </lane>
    </edge>
    <edge id=":10_18" function="internal">
        <lane id=":10_18_0" index="0" disallow="pedestrian tram rail_urban rail rail_electric rail_fast ship container cable_car subway aircraft wheelchair scooter drone" speed="3.65" length="1.44" width="3.20" shape="628.55,534.61 629.98,534.81">
            <param key="signalID" value="202678527_16 202678527_17 202678527_18"/>
        </lane>
    </edge>
    <edge id=":10_25" function="internal">
        <lane id=":10_25_0" index="0" disallow="pedestrian tram rail_urban rail rail_electric rail_fast ship container cable_car subway aircraft wheelchair scooter drone" speed="9.02" length="14.02" width="3.20" shape="633.59,533.06 637.84,533.60 641.29,536.22 643.94,540.93">
            <param key="signalID" value="202678527_16 202678527_17 202678527_18"/>
        </lane>
    </edge>
    <edge id=":10_26" function="internal">
        <lane id=":10_26_0" index="0" disallow="pedestrian tram rail_urban rail rail_electric rail_fast ship container cable_car subway aircraft wheelchair scooter drone" speed="3.65" length="3.23" width="3.20" shape="629.98,534.81 630.68,535.36 630.66,536.26 629.93,537.50">
            <param key="signalID" value="202678527_16 202678527_17 202678527_18"/>
        </lane>
    </edge>
    <edge id=":11_0" function="internal">
        <lane id=":11_0_0" index="0" disallow="pedestrian tram rail_urban rail rail_electric rail_fast ship container cable_car subway aircraft wheelchair scooter drone" speed="20.24" length="14.10" width="3.20" shape="348.25,663.14 335.15,668.22"/>
        <lane id=":11_0_1" index="1" disallow="pedestrian tram rail_urban rail rail_electric rail_fast ship container cable_car subway aircraft wheelchair scooter drone" speed="20.24" length="14.10" width="3.20" shape="347.14,660.14 333.95,665.26"/>
    </edge>
    <edge id=":11_2" function="internal">
        <lane id=":11_2_0" index="0" disallow="pedestrian tram rail_urban rail rail_electric rail_fast ship container cable_car subway aircraft wheelchair scooter drone" speed="8.74" length="3.44" width="3.20" shape="347.14,660.14 343.74,660.68"/>
    </edge>
    <edge id=":11_3" function="internal">
        <lane id=":11_3_0" index="0" disallow="pedestrian tram rail_urban rail rail_electric rail_fast ship container cable_car subway aircraft wheelchair scooter drone" speed="3.65" length="1.44" width="3.20" shape="347.14,660.14 345.73,659.81"/>
    </edge>
    <edge id=":11_11" function="internal">
        <lane id=":11_11_0" index="0" disallow="pedestrian tram rail_urban rail rail_electric rail_fast ship container cable_car subway aircraft wheelchair scooter drone" speed="8.74" length="13.32" width="3.20" shape="343.74,660.68 343.34,660.75 339.99,659.60 337.09,656.70 334.63,652.04"/>
    </edge>
    <edge id=":11_12" function="internal">
        <lane id=":11_12_0" index="0" disallow="pedestrian tram rail_urban rail rail_electric rail_fast ship container cable_car subway aircraft wheelchair scooter drone" speed="3.65" length="3.23" width="3.20" shape="345.73,659.81 345.08,659.19 345.18,658.31 346.02,657.14"/>
    </edge>
    <edge id=":11_4" function="internal">
        <lane id=":11_4_0" index="0" disallow="pedestrian tram rail_urban rail rail_electric rail_fast ship container cable_car subway aircraft wheelchair scooter drone" speed="6.59" length="9.09" width="3.20" shape="337.60,650.84 338.85,653.01 340.48,654.28 342.50,654.65 344.91,654.14"/>
    </edge>
    <edge id=":11_5" function="internal">
        <lane id=":11_5_0" index="0" disallow="pedestrian tram rail_urban rail rail_electric rail_fast ship container cable_car subway aircraft wheelchair scooter drone" speed="8.67" length="16.83" width="3.20" shape="337.60,650.84 339.05,655.91 338.93,660.00 337.23,663.12 333.95,665.26"/>
    </edge>
    <edge id=":11_6" function="internal">
        <lane id=":11_6_0" index="0" disallow="pedestrian tram rail_urban rail rail_electric rail_fast ship container cable_car subway aircraft wheelchair scooter drone" speed="3.65" length="4.67" width="3.20" shape="337.60,650.84 337.31,652.25 336.71,652.92 335.82,652.85 334.63,652.04"/>
    </edge>
    <edge id=":11_7" function="internal">
        <lane id=":11_7_0" index="0" disallow="pedestrian tram rail_urban rail rail_electric rail_fast ship container cable_car subway aircraft wheelchair scooter drone" speed="6.51" length="9.02" width="3.20" shape="331.54,659.33 333.68,658.08 334.91,656.45 335.22,654.44 334.63,652.04"/>
    </edge>
    <edge id=":11_8" function="internal">
        <lane id=":11_8_0" index="0" disallow="pedestrian tram rail_urban rail rail_electric rail_fast ship container cable_car subway aircraft wheelchair scooter drone" speed="20.24" length="14.29" width="3.20" shape="331.54,659.33 344.91,654.14"/>
        <lane id=":11_8_1" index="1" disallow="pedestrian tram rail_urban rail rail_electric rail_fast ship container cable_car subway aircraft wheelchair scooter drone" speed="20.24" length="14.29" width="3.20" shape="332.74,662.29 346.02,657.14"/>
    </edge>
    <edge id=":11_10" function="internal">
        <lane id=":11_10_0" index="0" disallow="pedestrian tram rail_urban rail rail_electric rail_fast ship container cable_car subway aircraft wheelchair scooter drone" speed="3.65" length="1.44" width="3.20" shape="332.74,662.29 334.16,662.58"/>
    </edge>
    <edge id=":11_13" function="internal">
        <lane id=":11_13_0" index="0" disallow="pedestrian tram rail_urban rail rail_electric rail_fast ship container cable_car subway aircraft wheelchair scooter drone" speed="3.65" length="3.23" width="3.20" shape="334.16,662.58 334.83,663.17 334.76,664.06 333.95,665.26"/>
    </edge>
    <edge id=":12_0" function="internal">
        <lane id=":12_0_0" index="0" disallow="pedestrian tram rail_urban rail rail_electric rail_fast ship container cable_car subway aircraft wheelchair scooter drone" speed="6.41" length="9.04" width="3.20" shape="263.27,703.51 262.08,701.32 260.48,700.08 258.48,699.77 256.07,700.42">
            <param key="signalID" value="202626202_0 202626202_1 202626202_2 202626202_3"/>
        </lane>
    </edge>
    <edge id=":12_1" function="internal">
        <lane id=":12_1_0" index="0" disallow="pedestrian tram rail_urban rail rail_electric rail_fast ship container cable_car subway aircraft wheelchair scooter drone" speed="23.34" length="20.93" width="3.20" shape="263.27,703.51 255.72,683.99">
            <param key="signalID" value="202626202_0 202626202_1 202626202_2 202626202_3"/>
        </lane>
    </edge>
    <edge id=":12_2" function="internal">
        <lane id=":12_2_0" index="0" disallow="pedestrian tram rail_urban rail rail_electric rail_fast ship container cable_car subway aircraft wheelchair scooter drone" speed="8.81" length="5.47" width="3.20" shape="263.27,703.51 261.93,698.34 261.94,698.21">
            <param key="signalID" value="202626202_0 202626202_1 202626202_2 202626202_3"/>
        </lane>
    </edge>
    <edge id=":12_3" function="internal">
        <lane id=":12_3_0" index="0" disallow="pedestrian tram rail_urban rail rail_electric rail_fast ship container cable_car subway aircraft wheelchair scooter drone" speed="3.65" length="1.44" width="3.20" shape="263.27,703.51 263.60,702.10">
            <param key="signalID" value="202626202_0 202626202_1 202626202_2 202626202_3"/>
        </lane>
    </edge>
    <edge id=":12_18" function="internal">
        <lane id=":12_18_0" index="0" disallow="pedestrian tram rail_urban rail rail_electric rail_fast ship container cable_car subway aircraft wheelchair scooter drone" speed="8.81" length="11.59" width="3.20" shape="261.94,698.21 262.13,694.17 263.88,691.01 267.18,688.86">
            <param key="signalID" value="202626202_0 202626202_1 202626202_2 202626202_3"/>
        </lane>
    </edge>
    <edge id=":12_19" function="internal">
        <lane id=":12_19_0" index="0" disallow="pedestrian tram rail_urban rail rail_electric rail_fast ship container cable_car subway aircraft wheelchair scooter drone" speed="3.65" length="3.23" width="3.20" shape="263.60,702.10 264.21,701.45 265.10,701.55 266.27,702.39">
            <param key="signalID" value="202626202_0 202626202_1 202626202_2 202626202_3"/>
        </lane>
    </edge>
    <edge id=":12_4" function="internal">
        <lane id=":12_4_0" index="0" disallow="pedestrian tram rail_urban rail rail_electric rail_fast ship container cable_car subway aircraft wheelchair scooter drone" speed="6.69" length="9.39" width="3.20" shape="269.58,694.79 267.37,696.08 266.08,697.77 265.72,699.88 266.27,702.39">
            <param key="signalID" value="202626202_4 202626202_5"/>
        </lane>
    </edge>
    <edge id=":12_5" function="internal">
        <lane id=":12_5_0" index="0" disallow="pedestrian tram rail_urban rail rail_electric rail_fast ship container cable_car subway aircraft wheelchair scooter drone" speed="20.24" length="14.66" width="3.20" shape="269.58,694.79 256.07,700.42">
            <param key="signalID" value="202626202_4 202626202_5"/>
        </lane>
        <lane id=":12_5_1" index="1" disallow="pedestrian tram rail_urban rail rail_electric rail_fast ship container cable_car subway aircraft wheelchair scooter drone" speed="20.24" length="14.66" width="3.20" shape="268.38,691.83 254.81,697.48">
            <param key="signalID" value="202626202_6 202626202_7 202626202_8"/>
        </lane>
    </edge>
    <edge id=":12_7" function="internal">
        <lane id=":12_7_0" index="0" disallow="pedestrian tram rail_urban rail rail_electric rail_fast ship container cable_car subway aircraft wheelchair scooter drone" speed="8.67" length="3.58" width="3.20" shape="268.38,691.83 264.86,692.51">
            <param key="signalID" value="202626202_6 202626202_7 202626202_8"/>
        </lane>
    </edge>
    <edge id=":12_8" function="internal">
        <lane id=":12_8_0" index="0" disallow="pedestrian tram rail_urban rail rail_electric rail_fast ship container cable_car subway aircraft wheelchair scooter drone" speed="3.65" length="1.44" width="3.20" shape="268.38,691.83 266.96,691.54">
            <param key="signalID" value="202626202_6 202626202_7 202626202_8"/>
        </lane>
    </edge>
    <edge id=":12_20" function="internal">
        <lane id=":12_20_0" index="0" disallow="pedestrian tram rail_urban rail rail_electric rail_fast ship container cable_car subway aircraft wheelchair scooter drone" speed="8.67" length="13.29" width="3.20" shape="264.86,692.51 264.52,692.58 261.12,691.52 258.19,688.66 255.72,683.99">
            <param key="signalID" value="202626202_6 202626202_7 202626202_8"/>
        </lane>
    </edge>
    <edge id=":12_21" function="internal">
        <lane id=":12_21_0" index="0" disallow="pedestrian tram rail_urban rail rail_electric rail_fast ship container cable_car subway aircraft wheelchair scooter drone" speed="3.65" length="3.23" width="3.20" shape="266.96,691.54 266.29,690.95 266.36,690.05 267.18,688.86">
            <param key="signalID" value="202626202_6 202626202_7 202626202_8"/>
        </lane>
    </edge>
    <edge id=":12_9" function="internal">
        <lane id=":12_9_0" index="0" disallow="pedestrian tram rail_urban rail rail_electric rail_fast ship container cable_car subway aircraft wheelchair scooter drone" speed="6.50" length="9.03" width="3.20" shape="258.69,682.80 259.93,684.94 261.56,686.17 263.57,686.49 265.97,685.90">
            <param key="signalID" value="202626202_10 202626202_11 202626202_12 202626202_9"/>
        </lane>
    </edge>
    <edge id=":12_10" function="internal">
        <lane id=":12_10_0" index="0" disallow="pedestrian tram rail_urban rail rail_electric rail_fast ship container cable_car subway aircraft wheelchair scooter drone" speed="23.34" length="21.01" width="3.20" shape="258.69,682.80 266.27,702.39">
            <param key="signalID" value="202626202_10 202626202_11 202626202_12 202626202_9"/>
        </lane>
    </edge>
    <edge id=":12_11" function="internal">
        <lane id=":12_11_0" index="0" disallow="pedestrian tram rail_urban rail rail_electric rail_fast ship container cable_car subway aircraft wheelchair scooter drone" speed="8.81" length="5.69" width="3.20" shape="258.69,682.80 260.12,687.88 260.11,688.29">
            <param key="signalID" value="202626202_10 202626202_11 202626202_12 202626202_9"/>
        </lane>
    </edge>
    <edge id=":12_12" function="internal">
        <lane id=":12_12_0" index="0" disallow="pedestrian tram rail_urban rail rail_electric rail_fast ship container cable_car subway aircraft wheelchair scooter drone" speed="3.65" length="1.44" width="3.20" shape="258.69,682.80 258.40,684.21">
            <param key="signalID" value="202626202_10 202626202_11 202626202_12 202626202_9"/>
        </lane>
    </edge>
    <edge id=":12_22" function="internal">
        <lane id=":12_22_0" index="0" disallow="pedestrian tram rail_urban rail rail_electric rail_fast ship container cable_car subway aircraft wheelchair scooter drone" speed="8.81" length="11.45" width="3.20" shape="260.11,688.29 259.95,692.02 258.18,695.22 254.81,697.48">
            <param key="signalID" value="202626202_10 202626202_11 202626202_12 202626202_9"/>
        </lane>
    </edge>
    <edge id=":12_23" function="internal">
        <lane id=":12_23_0" index="0" disallow="pedestrian tram rail_urban rail rail_electric rail_fast ship container cable_car subway aircraft wheelchair scooter drone" speed="3.65" length="3.23" width="3.20" shape="258.40,684.21 257.80,684.88 256.91,684.81 255.72,683.99">
            <param key="signalID" value="202626202_10 202626202_11 202626202_12 202626202_9"/>
        </lane>
    </edge>
    <edge id=":12_13" function="internal">
        <lane id=":12_13_0" index="0" disallow="pedestrian tram rail_urban rail rail_electric rail_fast ship container cable_car subway aircraft wheelchair scooter drone" speed="6.69" length="9.46" width="3.20" shape="252.30,691.59 254.58,690.23 255.92,688.51 256.30,686.43 255.72,683.99">
            <param key="signalID" value="202626202_13 202626202_14"/>
        </lane>
    </edge>
    <edge id=":12_14" function="internal">
        <lane id=":12_14_0" index="0" disallow="pedestrian tram rail_urban rail rail_electric rail_fast ship container cable_car subway aircraft wheelchair scooter drone" speed="20.24" length="14.79" width="3.20" shape="252.30,691.59 265.97,685.90">
            <param key="signalID" value="202626202_13 202626202_14"/>
        </lane>
        <lane id=":12_14_1" index="1" disallow="pedestrian tram rail_urban rail rail_electric rail_fast ship container cable_car subway aircraft wheelchair scooter drone" speed="20.24" length="14.79" width="3.20" shape="253.55,694.53 267.18,688.86">
            <param key="signalID" value="202626202_15 202626202_16 202626202_17"/>
        </lane>
    </edge>
    <edge id=":12_16" function="internal">
        <lane id=":12_16_0" index="0" disallow="pedestrian tram rail_urban rail rail_electric rail_fast ship container cable_car subway aircraft wheelchair scooter drone" speed="8.59" length="3.87" width="3.20" shape="253.55,694.53 257.33,693.71">
            <param key="signalID" value="202626202_15 202626202_16 202626202_17"/>
        </lane>
    </edge>
    <edge id=":12_17" function="internal">
        <lane id=":12_17_0" index="0" disallow="pedestrian tram rail_urban rail rail_electric rail_fast ship container cable_car subway aircraft wheelchair scooter drone" speed="3.65" length="1.44" width="3.20" shape="253.55,694.53 254.97,694.80">
            <param key="signalID" value="202626202_15 202626202_16 202626202_17"/>
        </lane>
    </edge>
    <edge id=":12_24" function="internal">
        <lane id=":12_24_0" index="0" disallow="pedestrian tram rail_urban rail rail_electric rail_fast ship container cable_car subway aircraft wheelchair scooter drone" speed="8.59" length="13.25" width="3.20" shape="257.33,693.71 257.52,693.67 260.96,694.69 263.87,697.60 266.27,702.39">
            <param key="signalID" value="202626202_15 202626202_16 202626202_17"/>
        </lane>
    </edge>
    <edge id=":12_25" function="internal">
        <lane id=":12_25_0" index="0" disallow="pedestrian tram rail_urban rail rail_electric rail_fast ship container cable_car subway aircraft wheelchair scooter drone" speed="3.65" length="3.23" width="3.20" shape="254.97,694.80 255.65,695.38 255.60,696.27 254.81,697.48">
            <param key="signalID" value="202626202_15 202626202_16 202626202_17"/>
        </lane>
    </edge>
    <edge id=":13_0" function="internal">
        <lane id=":13_0_0" index="0" disallow="pedestrian tram rail_urban rail rail_electric rail_fast ship container cable_car subway aircraft wheelchair scooter drone" speed="3.65" length="4.67" width="3.20" shape="0.80,609.84 -0.62,609.60 -1.31,609.04 -1.28,608.15 -0.51,606.92"/>
    </edge>
    <edge id=":14_0" function="internal">
        <lane id=":14_0_0" index="0" disallow="pedestrian tram rail_urban rail rail_electric rail_fast ship container cable_car subway aircraft wheelchair scooter drone" speed="3.65" length="4.67" width="3.20" shape="241.19,703.29 239.78,703.03 239.09,702.45 239.15,701.56 239.94,700.35"/>
    </edge>
    <edge id=":15_0" function="internal">
        <lane id=":15_0_0" index="0" disallow="pedestrian tram rail_urban rail rail_electric rail_fast ship container cable_car subway aircraft wheelchair scooter drone" speed="3.65" length="4.67" width="3.20" shape="333.59,779.52 334.48,780.66 334.61,781.54 333.98,782.18 332.59,782.56"/>
    </edge>
    <edge id=":16_0" function="internal">
        <lane id=":16_0_0" index="0" disallow="pedestrian tram rail_urban rail rail_electric rail_fast ship container cable_car subway aircraft wheelchair scooter drone" speed="3.66" length="4.69" width="3.20" shape="201.70,526.44 200.58,525.52 200.26,524.68 200.74,523.92 202.01,523.24"/>
    </edge>
    <edge id=":17_0" function="internal">
        <lane id=":17_0_0" index="0" disallow="pedestrian tram rail_urban rail rail_electric rail_fast ship container cable_car subway aircraft wheelchair scooter drone" speed="3.65" length="4.68" width="3.20" shape="599.55,453.73 599.53,452.28 599.97,451.50 600.86,451.38 602.20,451.91"/>
    </edge>
    <edge id=":18_0" function="internal">