<?xml version="1.0" encoding="UTF-8"?>

<!-- generated on 2026-04-30 03:47:56 by Eclipse SUMO netconvert Version 1.21.0
<netconvertConfiguration xmlns:xsi="http://www.w3.org/2001/XMLSchema-instance" xsi:noNamespaceSchemaLocation="http://sumo.dlr.de/xsd/netconvertConfiguration.xsd">

    <input>
        <node-files value="c:\Users\xh8\ORNL_Work\github_workspace\Real-Twin-DBMS\realtwin_tool\datasets\converted_CSVs\Nashville_converted_from_api.nod.xml"/>
        <edge-files value="c:\Users\xh8\ORNL_Work\github_workspace\Real-Twin-DBMS\realtwin_tool\datasets\converted_CSVs\Nashville_converted_from_api.edg.xml"/>
        <connection-files value="c:\Users\xh8\ORNL_Work\github_workspace\Real-Twin-DBMS\realtwin_tool\datasets\converted_CSVs\Nashville_converted_from_api.con.xml"/>
        <tllogic-files value="c:\Users\xh8\ORNL_Work\github_workspace\Real-Twin-DBMS\realtwin_tool\datasets\converted_CSVs\Nashville_converted_from_api.tll.xml"/>
        <type-files value="c:\Users\xh8\ORNL_Work\github_workspace\Real-Twin-DBMS\realtwin_tool\datasets\converted_CSVs\Nashville_converted_from_api.typ.xml"/>
    </input>

    <output>
        <output-file value="c:\Users\xh8\ORNL_Work\github_workspace\Real-Twin-DBMS\realtwin_tool\datasets\converted_CSVs\Nashville_converted_from_api.net.xml"/>
    </output>

    <projection>
        <proj.utm value="true"/>
    </projection>

    <report>
        <no-warnings value="true"/>
    </report>

</netconvertConfiguration>
-->

<net version="1.20" junctionCornerDetail="5" limitTurnSpeed="5.50" xmlns:xsi="http://www.w3.org/2001/XMLSchema-instance" xsi:noNamespaceSchemaLocation="http://sumo.dlr.de/xsd/net_file.xsd">

    <location netOffset="-531644.89,-3987027.83" convBoundary="0.00,0.00,5347.21,6575.32" origBoundary="-86.648538,36.027046,-86.589364,36.086540" projParameter="+proj=utm +zone=16 +ellps=WGS84 +datum=WGS84 +units=m +no_defs"/>

    <type id="driving"/>
    <type id="motorway"/>

    <edge id=":016e5f7a-877a-5fc1-8ee1-f75197b8bf09_0" function="internal">
        <lane id=":016e5f7a-877a-5fc1-8ee1-f75197b8bf09_0_0" index="0" speed="19.88" length="23.44" width="3.20" shape="3092.91,2550.67 3088.89,2556.55 3086.23,2562.35 3084.67,2567.65 3083.95,2572.00"/>
    </edge>
    <edge id=":016e5f7a-877a-5fc1-8ee1-f75197b8bf09_1" function="internal">
        <lane id=":016e5f7a-877a-5fc1-8ee1-f75197b8bf09_1_0" index="0" speed="22.35" length="23.31" width="3.20" shape="3092.91,2550.67 3079.21,2569.61"/>
        <lane id=":016e5f7a-877a-5fc1-8ee1-f75197b8bf09_1_1" index="1" speed="22.35" length="23.31" width="3.20" shape="3090.45,2548.63 3076.79,2567.51"/>
        <lane id=":016e5f7a-877a-5fc1-8ee1-f75197b8bf09_1_2" index="2" speed="22.35" length="23.31" width="3.20" shape="3090.45,2548.63 3074.38,2565.41"/>
    </edge>
    <edge id=":0638d36e-67b7-5f7f-a06b-4db9910aac19_0" function="internal">
        <lane id=":0638d36e-67b7-5f7f-a06b-4db9910aac19_0_0" index="0" speed="7.28" length="11.63" width="3.20" shape="1568.56,4480.65 1565.49,4478.39 1562.76,4477.37 1560.38,4477.61 1558.35,4479.09"/>
    </edge>
    <edge id=":0638d36e-67b7-5f7f-a06b-4db9910aac19_1" function="internal">
        <lane id=":0638d36e-67b7-5f7f-a06b-4db9910aac19_1_0" index="0" speed="11.18" length="33.92" width="3.20" shape="1570.68,4478.26 1563.00,4470.55 1556.77,4463.01 1552.01,4456.65 1548.70,4452.49"/>
    </edge>
    <edge id=":0638d36e-67b7-5f7f-a06b-4db9910aac19_2" function="internal">
        <lane id=":0638d36e-67b7-5f7f-a06b-4db9910aac19_2_0" index="0" speed="10.59" length="11.39" width="3.20" shape="1572.80,4475.86 1567.33,4469.94 1565.87,4466.96"/>
    </edge>
    <edge id=":0638d36e-67b7-5f7f-a06b-4db9910aac19_3" function="internal">
        <lane id=":0638d36e-67b7-5f7f-a06b-4db9910aac19_3_0" index="0" speed="3.65" length="1.44" width="3.20" shape="1572.80,4475.86 1572.44,4474.46"/>
    </edge>
    <edge id=":0638d36e-67b7-5f7f-a06b-4db9910aac19_19" function="internal">
        <lane id=":0638d36e-67b7-5f7f-a06b-4db9910aac19_19_0" index="0" speed="10.59" length="13.89" width="3.20" shape="1565.87,4466.96 1564.60,4464.34 1564.60,4459.05 1567.35,4454.07"/>
    </edge>
    <edge id=":0638d36e-67b7-5f7f-a06b-4db9910aac19_20" function="internal">
        <lane id=":0638d36e-67b7-5f7f-a06b-4db9910aac19_20_0" index="0" speed="3.65" length="3.23" width="3.20" shape="1572.44,4474.46 1572.67,4473.60 1573.50,4473.27 1574.93,4473.47"/>
    </edge>
    <edge id=":0638d36e-67b7-5f7f-a06b-4db9910aac19_4" function="internal">
        <lane id=":0638d36e-67b7-5f7f-a06b-4db9910aac19_4_0" index="0" speed="7.61" length="12.56" width="3.20" shape="1577.08,4462.39 1574.58,4465.85 1573.39,4468.85 1573.51,4471.39 1574.93,4473.47"/>
    </edge>
    <edge id=":0638d36e-67b7-5f7f-a06b-4db9910aac19_5" function="internal">
        <lane id=":0638d36e-67b7-5f7f-a06b-4db9910aac19_5_0" index="0" speed="20.12" length="25.12" width="3.20" shape="1577.08,4462.39 1571.88,4467.70 1567.76,4470.78 1563.62,4473.84 1558.35,4479.09"/>
        <lane id=":0638d36e-67b7-5f7f-a06b-4db9910aac19_5_1" index="1" speed="20.12" length="25.12" width="3.20" shape="1574.65,4460.31 1569.46,4465.61 1565.34,4468.68 1561.21,4471.74 1555.94,4476.98"/>
        <lane id=":0638d36e-67b7-5f7f-a06b-4db9910aac19_5_2" index="2" speed="20.12" length="25.12" width="3.20" shape="1572.22,4458.23 1567.04,4463.52 1562.93,4466.59 1558.80,4469.64 1553.54,4474.87"/>
    </edge>
    <edge id=":0638d36e-67b7-5f7f-a06b-4db9910aac19_8" function="internal">
        <lane id=":0638d36e-67b7-5f7f-a06b-4db9910aac19_8_0" index="0" speed="10.02" length="5.45" width="3.20" shape="1569.78,4456.15 1565.47,4459.48"/>
    </edge>
    <edge id=":0638d36e-67b7-5f7f-a06b-4db9910aac19_9" function="internal">
        <lane id=":0638d36e-67b7-5f7f-a06b-4db9910aac19_9_0" index="0" speed="3.65" length="1.44" width="3.20" shape="1569.78,4456.15 1568.40,4456.54"/>
    </edge>
    <edge id=":0638d36e-67b7-5f7f-a06b-4db9910aac19_21" function="internal">
        <lane id=":0638d36e-67b7-5f7f-a06b-4db9910aac19_21_0" index="0" speed="10.02" length="19.29" width="3.20" shape="1565.47,4459.48 1565.32,4459.60 1560.32,4460.14 1554.78,4457.77 1548.70,4452.49"/>
    </edge>
    <edge id=":0638d36e-67b7-5f7f-a06b-4db9910aac19_22" function="internal">
        <lane id=":0638d36e-67b7-5f7f-a06b-4db9910aac19_22_0" index="0" speed="3.65" length="3.23" width="3.20" shape="1568.40,4456.54 1567.53,4456.33 1567.18,4455.50 1567.35,4454.07"/>
    </edge>
    <edge id=":0638d36e-67b7-5f7f-a06b-4db9910aac19_10" function="internal">
        <lane id=":0638d36e-67b7-5f7f-a06b-4db9910aac19_10_0" index="0" speed="7.60" length="13.77" width="3.20" shape="1553.36,4448.10 1557.00,4451.46 1560.14,4453.22 1562.78,4453.39 1564.92,4451.98"/>
    </edge>
    <edge id=":0638d36e-67b7-5f7f-a06b-4db9910aac19_11" function="internal">
        <lane id=":0638d36e-67b7-5f7f-a06b-4db9910aac19_11_0" index="0" speed="11.18" length="33.31" width="3.20" shape="1553.36,4448.10 1559.09,4454.67 1565.31,4462.28 1570.95,4469.13 1574.93,4473.47"/>
    </edge>
    <edge id=":0638d36e-67b7-5f7f-a06b-4db9910aac19_12" function="internal">
        <lane id=":0638d36e-67b7-5f7f-a06b-4db9910aac19_12_0" index="0" speed="11.36" length="9.55" width="3.20" shape="1551.04,4450.29 1555.88,4456.78 1556.33,4458.17"/>
    </edge>
    <edge id=":0638d36e-67b7-5f7f-a06b-4db9910aac19_13" function="internal">
        <lane id=":0638d36e-67b7-5f7f-a06b-4db9910aac19_13_0" index="0" speed="3.65" length="1.44" width="3.20" shape="1551.04,4450.29 1551.28,4451.71"/>
    </edge>
    <edge id=":0638d36e-67b7-5f7f-a06b-4db9910aac19_23" function="internal">
        <lane id=":0638d36e-67b7-5f7f-a06b-4db9910aac19_23_0" index="0" speed="11.36" length="18.03" width="3.20" shape="1556.33,4458.17 1557.91,4463.04 1557.13,4469.07 1553.54,4474.87"/>
    </edge>
    <edge id=":0638d36e-67b7-5f7f-a06b-4db9910aac19_24" function="internal">
        <lane id=":0638d36e-67b7-5f7f-a06b-4db9910aac19_24_0" index="0" speed="3.65" length="3.24" width="3.20" shape="1551.28,4451.71 1550.97,4452.56 1550.11,4452.81 1548.70,4452.49"/>
    </edge>
    <edge id=":0638d36e-67b7-5f7f-a06b-4db9910aac19_14" function="internal">
        <lane id=":0638d36e-67b7-5f7f-a06b-4db9910aac19_14_0" index="0" speed="8.72" length="15.81" width="3.20" shape="1543.80,4466.32 1547.35,4461.76 1549.35,4457.93 1549.80,4454.85 1548.70,4452.49"/>
    </edge>
    <edge id=":0638d36e-67b7-5f7f-a06b-4db9910aac19_15" function="internal">
        <lane id=":0638d36e-67b7-5f7f-a06b-4db9910aac19_15_0" index="0" speed="20.12" length="25.00" width="3.20" shape="1546.20,4468.42 1551.68,4462.97 1556.20,4459.54 1560.41,4456.44 1564.92,4451.98"/>
        <lane id=":0638d36e-67b7-5f7f-a06b-4db9910aac19_15_1" index="1" speed="20.12" length="25.00" width="3.20" shape="1548.61,4470.54 1554.09,4465.08 1558.63,4461.64 1562.84,4458.53 1567.35,4454.07"/>
    </edge>
    <edge id=":0638d36e-67b7-5f7f-a06b-4db9910aac19_17" function="internal">
        <lane id=":0638d36e-67b7-5f7f-a06b-4db9910aac19_17_0" index="0" speed="10.88" length="6.90" width="3.20" shape="1551.02,4472.65 1556.28,4468.40 1556.41,4468.37"/>
    </edge>
    <edge id=":0638d36e-67b7-5f7f-a06b-4db9910aac19_18" function="internal">
        <lane id=":0638d36e-67b7-5f7f-a06b-4db9910aac19_18_0" index="0" speed="3.71" length="1.67" width="3.20" shape="1551.02,4472.65 1552.48,4472.26 1552.62,4472.29"/>
    </edge>
    <edge id=":0638d36e-67b7-5f7f-a06b-4db9910aac19_25" function="internal">
        <lane id=":0638d36e-67b7-5f7f-a06b-4db9910aac19_25_0" index="0" speed="10.88" length="20.34" width="3.20" shape="1556.41,4468.37 1562.03,4467.12 1568.24,4468.81 1574.93,4473.47"/>
    </edge>
    <edge id=":0638d36e-67b7-5f7f-a06b-4db9910aac19_26" function="internal">
        <lane id=":0638d36e-67b7-5f7f-a06b-4db9910aac19_26_0" index="0" speed="3.71" length="3.25" width="3.20" shape="1552.62,4472.29 1553.39,4472.50 1553.74,4473.37 1553.54,4474.87"/>
    </edge>
    <edge id=":071f2aed-4f59-5658-bbed-88268f3290e4_0" function="internal">
        <lane id=":071f2aed-4f59-5658-bbed-88268f3290e4_0_0" index="0" speed="22.35" length="8.31" width="3.20" shape="3262.56,2327.06 3263.82,2324.96 3264.21,2323.23 3264.59,2321.50 3265.85,2319.40"/>
        <lane id=":071f2aed-4f59-5658-bbed-88268f3290e4_0_1" index="1" speed="22.35" length="8.31" width="3.20" shape="3265.01,2329.11 3266.28,2327.01 3266.66,2325.28 3267.05,2323.55 3268.31,2321.45"/>
        <lane id=":071f2aed-4f59-5658-bbed-88268f3290e4_0_2" index="2" speed="22.35" length="8.31" width="3.20" shape="3265.01,2329.11 3266.63,2327.36 3267.89,2326.30 3269.14,2325.24 3270.76,2323.50"/>
    </edge>
    <edge id=":07ae9f60-4e25-50c5-be9b-80f4411adc5f_0" function="internal">
        <lane id=":07ae9f60-4e25-50c5-be9b-80f4411adc5f_0_0" index="0" speed="20.12" length="8.66" width="3.20" shape="1240.38,4828.55 1239.12,4830.74 1238.96,4832.66 1238.80,4834.57 1237.53,4836.76"/>
        <lane id=":07ae9f60-4e25-50c5-be9b-80f4411adc5f_0_1" index="1" speed="20.12" length="8.66" width="3.20" shape="1238.00,4826.42 1236.74,4828.61 1236.59,4830.53 1236.43,4832.44 1235.16,4834.62"/>
        <lane id=":07ae9f60-4e25-50c5-be9b-80f4411adc5f_0_2" index="2" speed="20.12" length="8.66" width="3.20" shape="1235.61,4824.29 1234.35,4826.47 1234.20,4828.39 1234.05,4830.30 1232.78,4832.48"/>
        <lane id=":07ae9f60-4e25-50c5-be9b-80f4411adc5f_0_3" index="3" speed="20.12" length="8.66" width="3.20" shape="1235.61,4824.29 1230.41,4830.33"/>
        <lane id=":07ae9f60-4e25-50c5-be9b-80f4411adc5f_0_4" index="4" speed="20.12" length="8.66" width="3.20" shape="1235.61,4824.29 1233.62,4825.79 1231.82,4826.24 1230.02,4826.69 1228.04,4828.19"/>
    </edge>
    <edge id=":07e8c4ec-a022-5090-ba27-00ef3961dd1e_0" function="internal">
        <lane id=":07e8c4ec-a022-5090-ba27-00ef3961dd1e_0_0" index="0" speed="25.82" length="33.70" width="3.20" shape="1085.17,4824.17 1088.12,4832.43 1091.97,4841.59 1095.66,4849.82 1098.12,4855.27"/>
    </edge>
    <edge id=":07e8c4ec-a022-5090-ba27-00ef3961dd1e_1" function="internal">
        <lane id=":07e8c4ec-a022-5090-ba27-00ef3961dd1e_1_0" index="0" speed="20.12" length="33.44" width="3.20" shape="1085.17,4824.17 1094.58,4856.44"/>
        <lane id=":07e8c4ec-a022-5090-ba27-00ef3961dd1e_1_1" index="1" speed="20.12" length="33.44" width="3.20" shape="1082.12,4825.15 1091.43,4857.08"/>
    </edge>
    <edge id=":097f5f6e-48ed-5708-98d3-0ee3c4726b2c_0" function="internal">
        <lane id=":097f5f6e-48ed-5708-98d3-0ee3c4726b2c_0_0" index="0" speed="3.65" length="4.67" width="3.20" shape="1922.38,4206.47 1923.34,4207.54 1923.53,4208.42 1922.95,4209.09 1921.58,4209.57"/>
    </edge>
    <edge id=":0a3b5f0d-7666-5dec-83bb-e6241d3f81b6_0" function="internal">
        <lane id=":0a3b5f0d-7666-5dec-83bb-e6241d3f81b6_0_0" index="0" speed="3.62" length="4.57" width="3.20" shape="829.96,5145.00 829.94,5143.59 830.36,5142.83 831.23,5142.70 832.53,5143.22"/>
    </edge>
    <edge id=":0a929cbd-cdd0-533c-b117-8c01c5134882_0" function="internal">
        <lane id=":0a929cbd-cdd0-533c-b117-8c01c5134882_0_0" index="0" speed="20.12" length="8.42" width="3.20" shape="861.64,5272.90 862.71,5270.58 862.65,5268.62 862.59,5266.65 863.66,5264.34"/>
        <lane id=":0a929cbd-cdd0-533c-b117-8c01c5134882_0_1" index="1" speed="20.12" length="8.42" width="3.20" shape="861.64,5272.90 866.19,5266.30"/>
        <lane id=":0a929cbd-cdd0-533c-b117-8c01c5134882_0_2" index="2" speed="20.12" length="8.42" width="3.20" shape="864.17,5274.86 868.72,5268.26"/>
        <lane id=":0a929cbd-cdd0-533c-b117-8c01c5134882_0_3" index="3" speed="20.12" length="8.42" width="3.20" shape="864.17,5274.86 866.00,5273.19 867.71,5272.54 869.42,5271.89 871.25,5270.23"/>
    </edge>
    <edge id=":0be6192d-6742-5887-a620-05fcd88956f8_0" function="internal">
        <lane id=":0be6192d-6742-5887-a620-05fcd88956f8_0_0" index="0" speed="22.35" length="8.21" width="3.20" shape="3770.44,1769.08 3774.76,1762.33"/>
        <lane id=":0be6192d-6742-5887-a620-05fcd88956f8_0_1" index="1" speed="22.35" length="8.21" width="3.20" shape="3773.05,1770.95 3777.36,1764.20"/>
        <lane id=":0be6192d-6742-5887-a620-05fcd88956f8_0_2" index="2" speed="22.35" length="8.21" width="3.20" shape="3773.05,1770.95 3774.82,1769.22 3776.50,1768.51 3778.18,1767.80 3779.95,1766.07"/>
    </edge>
    <edge id=":1000a12c-4db9-5eb9-a67f-e03565b27512_0" function="internal">
        <lane id=":1000a12c-4db9-5eb9-a67f-e03565b27512_0_0" index="0" speed="22.35" length="8.21" width="3.20" shape="3593.86,1989.49 3588.62,1995.54"/>
        <lane id=":1000a12c-4db9-5eb9-a67f-e03565b27512_0_1" index="1" speed="22.35" length="8.21" width="3.20" shape="3591.54,1987.29 3586.30,1993.34"/>
        <lane id=":1000a12c-4db9-5eb9-a67f-e03565b27512_0_2" index="2" speed="22.35" length="8.21" width="3.20" shape="3591.54,1987.29 3589.54,1988.75 3587.76,1989.21 3585.99,1989.67 3583.98,1991.14"/>
    </edge>
    <edge id=":1e747ea8-d161-5d5a-9d19-b3030a72cc72_0" function="internal">
        <lane id=":1e747ea8-d161-5d5a-9d19-b3030a72cc72_0_0" index="0" speed="3.65" length="4.68" width="3.20" shape="720.65,5631.14 720.78,5632.58 720.41,5633.40 719.53,5633.59 718.15,5633.15"/>
    </edge>
    <edge id=":2123b7c1-e9eb-5a0e-a050-1f1fa3730e97_0" function="internal">
        <lane id=":2123b7c1-e9eb-5a0e-a050-1f1fa3730e97_0_0" index="0" speed="6.78" length="10.14" width="3.20" shape="904.97,5248.63 902.40,5246.95 900.07,5246.39 897.97,5246.95 896.12,5248.63"/>
    </edge>
    <edge id=":2123b7c1-e9eb-5a0e-a050-1f1fa3730e97_1" function="internal">
        <lane id=":2123b7c1-e9eb-5a0e-a050-1f1fa3730e97_1_0" index="0" speed="11.18" length="32.58" width="3.20" shape="907.01,5246.17 900.60,5240.44 893.79,5233.72 887.88,5227.44 884.20,5222.98"/>
    </edge>
    <edge id=":2123b7c1-e9eb-5a0e-a050-1f1fa3730e97_2" function="internal">
        <lane id=":2123b7c1-e9eb-5a0e-a050-1f1fa3730e97_2_0" index="0" speed="10.86" length="11.06" width="3.20" shape="907.01,5246.17 901.47,5240.44 900.14,5237.65"/>
    </edge>
    <edge id=":2123b7c1-e9eb-5a0e-a050-1f1fa3730e97_3" function="internal">
        <lane id=":2123b7c1-e9eb-5a0e-a050-1f1fa3730e97_3_0" index="0" speed="3.65" length="1.44" width="3.20" shape="907.01,5246.17 906.60,5244.79"/>
    </edge>
    <edge id=":2123b7c1-e9eb-5a0e-a050-1f1fa3730e97_19" function="internal">
        <lane id=":2123b7c1-e9eb-5a0e-a050-1f1fa3730e97_19_0" index="0" speed="10.86" length="15.25" width="3.20" shape="900.14,5237.65 898.75,5234.74 898.86,5229.07 901.78,5223.43"/>
    </edge>
    <edge id=":2123b7c1-e9eb-5a0e-a050-1f1fa3730e97_20" function="internal">
        <lane id=":2123b7c1-e9eb-5a0e-a050-1f1fa3730e97_20_0" index="0" speed="3.65" length="3.23" width="3.20" shape="906.60,5244.79 906.80,5243.92 907.62,5243.56 909.05,5243.71"/>
    </edge>
    <edge id=":2123b7c1-e9eb-5a0e-a050-1f1fa3730e97_4" function="internal">
        <lane id=":2123b7c1-e9eb-5a0e-a050-1f1fa3730e97_4_0" index="0" speed="8.08" length="14.13" width="3.20" shape="911.76,5231.13 908.97,5235.31 907.59,5238.80 907.62,5241.60 909.05,5243.71"/>
    </edge>
    <edge id=":2123b7c1-e9eb-5a0e-a050-1f1fa3730e97_5" function="internal">
        <lane id=":2123b7c1-e9eb-5a0e-a050-1f1fa3730e97_5_0" index="0" speed="20.12" length="23.46" width="3.20" shape="909.22,5229.17 896.12,5248.63"/>
        <lane id=":2123b7c1-e9eb-5a0e-a050-1f1fa3730e97_5_1" index="1" speed="20.12" length="23.46" width="3.20" shape="906.69,5227.22 893.59,5246.68"/>
    </edge>
    <edge id=":2123b7c1-e9eb-5a0e-a050-1f1fa3730e97_7" function="internal">
        <lane id=":2123b7c1-e9eb-5a0e-a050-1f1fa3730e97_7_0" index="0" speed="9.45" length="2.36" width="3.20" shape="904.15,5225.26 902.43,5226.87"/>
    </edge>
    <edge id=":2123b7c1-e9eb-5a0e-a050-1f1fa3730e97_8" function="internal">
        <lane id=":2123b7c1-e9eb-5a0e-a050-1f1fa3730e97_8_0" index="0" speed="3.57" length="1.11" width="3.20" shape="904.15,5225.26 903.10,5225.62"/>
    </edge>
    <edge id=":2123b7c1-e9eb-5a0e-a050-1f1fa3730e97_21" function="internal">
        <lane id=":2123b7c1-e9eb-5a0e-a050-1f1fa3730e97_21_0" index="0" speed="9.45" length="22.55" width="3.20" shape="902.43,5226.87 899.28,5229.81 894.33,5230.94 889.30,5228.67 884.20,5222.98"/>
    </edge>
    <edge id=":2123b7c1-e9eb-5a0e-a050-1f1fa3730e97_22" function="internal">
        <lane id=":2123b7c1-e9eb-5a0e-a050-1f1fa3730e97_22_0" index="0" speed="3.57" length="3.26" width="3.20" shape="903.10,5225.62 902.88,5225.69 902.05,5225.53 901.69,5224.78 901.78,5223.43"/>
    </edge>
    <edge id=":2123b7c1-e9eb-5a0e-a050-1f1fa3730e97_9" function="internal">
        <lane id=":2123b7c1-e9eb-5a0e-a050-1f1fa3730e97_9_0" index="0" speed="5.94" length="9.08" width="3.20" shape="889.41,5219.35 891.19,5221.26 893.00,5221.93 894.84,5221.35 896.71,5219.53"/>
    </edge>
    <edge id=":2123b7c1-e9eb-5a0e-a050-1f1fa3730e97_10" function="internal">
        <lane id=":2123b7c1-e9eb-5a0e-a050-1f1fa3730e97_10_0" index="0" speed="11.18" length="31.33" width="3.20" shape="889.41,5219.35 894.35,5226.17 899.93,5233.41 905.16,5239.71 909.05,5243.71"/>
    </edge>
    <edge id=":2123b7c1-e9eb-5a0e-a050-1f1fa3730e97_11" function="internal">
        <lane id=":2123b7c1-e9eb-5a0e-a050-1f1fa3730e97_11_0" index="0" speed="12.53" length="4.64" width="3.20" shape="886.78,5221.18 889.21,5225.13"/>
    </edge>
    <edge id=":2123b7c1-e9eb-5a0e-a050-1f1fa3730e97_12" function="internal">
        <lane id=":2123b7c1-e9eb-5a0e-a050-1f1fa3730e97_12_0" index="0" speed="3.63" length="1.29" width="3.20" shape="886.78,5221.18 886.81,5222.47"/>
    </edge>
    <edge id=":2123b7c1-e9eb-5a0e-a050-1f1fa3730e97_23" function="internal">
        <lane id=":2123b7c1-e9eb-5a0e-a050-1f1fa3730e97_23_0" index="0" speed="12.53" length="23.22" width="3.20" shape="889.21,5225.13 891.92,5229.54 894.77,5236.58 895.32,5242.29 893.59,5246.68"/>
    </edge>
    <edge id=":2123b7c1-e9eb-5a0e-a050-1f1fa3730e97_24" function="internal">
        <lane id=":2123b7c1-e9eb-5a0e-a050-1f1fa3730e97_24_0" index="0" speed="3.63" length="3.31" width="3.20" shape="886.81,5222.47 886.81,5222.60 886.39,5223.37 885.52,5223.50 884.20,5222.98"/>
    </edge>
    <edge id=":2123b7c1-e9eb-5a0e-a050-1f1fa3730e97_13" function="internal">
        <lane id=":2123b7c1-e9eb-5a0e-a050-1f1fa3730e97_13_0" index="0" speed="9.91" length="17.15" width="3.20" shape="883.45,5238.85 885.83,5234.86 886.75,5230.88 886.20,5226.92 884.20,5222.98"/>
    </edge>
    <edge id=":2123b7c1-e9eb-5a0e-a050-1f1fa3730e97_14" function="internal">
        <lane id=":2123b7c1-e9eb-5a0e-a050-1f1fa3730e97_14_0" index="0" speed="20.12" length="23.44" width="3.20" shape="883.45,5238.85 896.71,5219.53"/>
        <lane id=":2123b7c1-e9eb-5a0e-a050-1f1fa3730e97_14_1" index="1" speed="20.12" length="23.44" width="3.20" shape="885.99,5240.81 899.25,5221.48"/>
        <lane id=":2123b7c1-e9eb-5a0e-a050-1f1fa3730e97_14_2" index="2" speed="20.12" length="23.44" width="3.20" shape="888.51,5242.76 901.78,5223.43"/>
    </edge>
    <edge id=":2123b7c1-e9eb-5a0e-a050-1f1fa3730e97_17" function="internal">
        <lane id=":2123b7c1-e9eb-5a0e-a050-1f1fa3730e97_17_0" index="0" speed="9.45" length="3.25" width="3.20" shape="891.05,5244.71 893.42,5242.49"/>
    </edge>
    <edge id=":2123b7c1-e9eb-5a0e-a050-1f1fa3730e97_18" function="internal">
        <lane id=":2123b7c1-e9eb-5a0e-a050-1f1fa3730e97_18_0" index="0" speed="3.65" length="1.45" width="3.20" shape="891.05,5244.71 892.42,5244.25"/>
    </edge>
    <edge id=":2123b7c1-e9eb-5a0e-a050-1f1fa3730e97_25" function="internal">
        <lane id=":2123b7c1-e9eb-5a0e-a050-1f1fa3730e97_25_0" index="0" speed="9.45" length="17.44" width="3.20" shape="893.42,5242.49 894.99,5241.02 899.30,5239.62 903.99,5240.52 909.05,5243.71"/>
    </edge>
    <edge id=":2123b7c1-e9eb-5a0e-a050-1f1fa3730e97_26" function="internal">
        <lane id=":2123b7c1-e9eb-5a0e-a050-1f1fa3730e97_26_0" index="0" speed="3.65" length="3.24" width="3.20" shape="892.42,5244.25 893.30,5244.43 893.69,5245.23 893.59,5246.68"/>
    </edge>
    <edge id=":235f5492-d0dc-5cb9-a4b5-361122706cd3_0" function="internal">
        <lane id=":235f5492-d0dc-5cb9-a4b5-361122706cd3_0_0" index="0" speed="3.65" length="4.69" width="3.20" shape="464.83,5885.25 465.28,5886.63 465.09,5887.51 464.28,5887.88 462.83,5887.76"/>
    </edge>
    <edge id=":2a990a07-4de7-5200-af88-63484bcd15e8_0" function="internal">
        <lane id=":2a990a07-4de7-5200-af88-63484bcd15e8_0_0" index="0" speed="3.65" length="4.67" width="3.20" shape="1227.02,5357.00 1226.55,5358.36 1225.88,5358.96 1225.01,5358.77 1223.92,5357.82"/>
    </edge>
    <edge id=":2d0c2f93-6328-53f7-8b37-891345059995_0" function="internal">
        <lane id=":2d0c2f93-6328-53f7-8b37-891345059995_0_0" index="0" speed="20.12" length="9.06" width="3.20" shape="1054.36,5015.78 1055.13,5012.84 1053.81,5010.29 1052.49,5007.75 1053.27,5004.81"/>
        <lane id=":2d0c2f93-6328-53f7-8b37-891345059995_0_1" index="1" speed="20.12" length="9.06" width="3.20" shape="1054.36,5015.78 1055.36,5013.36 1055.07,5011.27 1054.78,5009.19 1055.78,5006.77"/>
        <lane id=":2d0c2f93-6328-53f7-8b37-891345059995_0_2" index="2" speed="20.12" length="9.06" width="3.20" shape="1054.36,5015.78 1055.67,5013.78 1056.33,5012.25 1057.00,5010.73 1058.31,5008.73"/>
        <lane id=":2d0c2f93-6328-53f7-8b37-891345059995_0_3" index="3" speed="20.12" length="9.06" width="3.20" shape="1054.36,5015.78 1056.08,5014.07 1057.60,5013.23 1059.12,5012.40 1060.84,5010.69"/>
        <lane id=":2d0c2f93-6328-53f7-8b37-891345059995_0_4" index="4" speed="20.12" length="9.06" width="3.20" shape="1056.89,5017.74 1058.61,5016.03 1060.13,5015.19 1061.65,5014.36 1063.38,5012.65"/>
        <lane id=":2d0c2f93-6328-53f7-8b37-891345059995_0_5" index="5" speed="20.12" length="9.06" width="3.20" shape="1059.42,5019.70 1061.14,5017.99 1062.66,5017.15 1064.18,5016.32 1065.90,5014.61"/>
    </edge>
    <edge id=":2f22a70a-487c-5bf6-a9ae-77147370a092_0" function="internal">
        <lane id=":2f22a70a-487c-5bf6-a9ae-77147370a092_0_0" index="0" speed="15.65" length="8.37" width="3.20" shape="3686.08,1661.71 3692.70,1666.21"/>
        <lane id=":2f22a70a-487c-5bf6-a9ae-77147370a092_0_1" index="1" speed="15.65" length="8.37" width="3.20" shape="3686.08,1661.71 3687.82,1663.51 3688.48,1665.26 3689.13,1667.02 3690.86,1668.82"/>
    </edge>
    <edge id=":3cd7376e-6f80-57ee-98bc-c7e17a12ea69_0" function="internal">
        <lane id=":3cd7376e-6f80-57ee-98bc-c7e17a12ea69_0_0" index="0" speed="3.65" length="4.68" width="3.20" shape="576.57,5482.30 576.17,5480.91 576.38,5480.04 577.21,5479.68 578.65,5479.85"/>
    </edge>
    <edge id=":3d200702-eee5-537c-9e94-1e43d9e18e02_0" function="internal">
        <lane id=":3d200702-eee5-537c-9e94-1e43d9e18e02_0_0" index="0" speed="25.82" length="17.64" width="3.20" shape="3838.89,1783.23 3834.14,1780.11 3830.04,1778.40 3826.34,1777.40 3822.78,1776.45"/>
    </edge>
    <edge id=":3d200702-eee5-537c-9e94-1e43d9e18e02_1" function="internal">
        <lane id=":3d200702-eee5-537c-9e94-1e43d9e18e02_1_0" index="0" speed="20.12" length="17.60" width="3.20" shape="3838.89,1783.23 3824.94,1772.54"/>
        <lane id=":3d200702-eee5-537c-9e94-1e43d9e18e02_1_1" index="1" speed="20.12" length="17.60" width="3.20" shape="3840.86,1780.71 3826.88,1769.99"/>
    </edge>
    <edge id=":3ec3b6d5-bee8-56f1-98e4-8e8187447863_0" function="internal">
        <lane id=":3ec3b6d5-bee8-56f1-98e4-8e8187447863_0_0" index="0" speed="3.22" length="3.14" width="3.20" shape="3438.71,1264.57 3441.80,1264.01"/>
    </edge>
    <edge id=":41cfac1b-4017-5917-9f37-9ecc33ded98f_0" function="internal">
        <lane id=":41cfac1b-4017-5917-9f37-9ecc33ded98f_0_0" index="0" speed="3.65" length="4.67" width="3.20" shape="5120.23,-0.00 5119.78,-1.37 5119.96,-2.25 5120.77,-2.63 5122.20,-2.52"/>
    </edge>
    <edge id=":42172936-0fbb-5e74-b569-beb9c08445ee_0" function="internal">
        <lane id=":42172936-0fbb-5e74-b569-beb9c08445ee_0_0" index="0" speed="7.42" length="12.07" width="3.20" shape="649.30,5552.97 646.42,5550.20 643.75,5548.76 641.28,5548.64 639.03,5549.86"/>
    </edge>
    <edge id=":42172936-0fbb-5e74-b569-beb9c08445ee_1" function="internal">
        <lane id=":42172936-0fbb-5e74-b569-beb9c08445ee_1_0" index="0" speed="11.18" length="31.17" width="3.20" shape="649.30,5552.97 644.04,5546.44 638.59,5539.17 633.69,5532.67 630.05,5528.47"/>
    </edge>
    <edge id=":42172936-0fbb-5e74-b569-beb9c08445ee_2" function="internal">
        <lane id=":42172936-0fbb-5e74-b569-beb9c08445ee_2_0" index="0" speed="10.90" length="10.24" width="3.20" shape="651.64,5550.80 646.90,5544.27 646.12,5542.24"/>
    </edge>
    <edge id=":42172936-0fbb-5e74-b569-beb9c08445ee_3" function="internal">
        <lane id=":42172936-0fbb-5e74-b569-beb9c08445ee_3_0" index="0" speed="3.66" length="1.45" width="3.20" shape="651.64,5550.80 651.41,5549.37"/>
    </edge>
    <edge id=":42172936-0fbb-5e74-b569-beb9c08445ee_18" function="internal">
        <lane id=":42172936-0fbb-5e74-b569-beb9c08445ee_18_0" index="0" speed="10.90" length="14.80" width="3.20" shape="646.12,5542.24 644.65,5538.37 644.90,5533.11 647.65,5528.47"/>
    </edge>
    <edge id=":42172936-0fbb-5e74-b569-beb9c08445ee_19" function="internal">
        <lane id=":42172936-0fbb-5e74-b569-beb9c08445ee_19_0" index="0" speed="3.66" length="3.24" width="3.20" shape="651.41,5549.37 651.72,5548.53 652.58,5548.28 653.99,5548.61"/>
    </edge>
    <edge id=":42172936-0fbb-5e74-b569-beb9c08445ee_4" function="internal">
        <lane id=":42172936-0fbb-5e74-b569-beb9c08445ee_4_0" index="0" speed="7.98" length="12.95" width="3.20" shape="657.08,5537.20 654.38,5540.64 652.96,5543.69 652.83,5546.35 653.99,5548.61"/>
    </edge>
    <edge id=":42172936-0fbb-5e74-b569-beb9c08445ee_5" function="internal">
        <lane id=":42172936-0fbb-5e74-b569-beb9c08445ee_5_0" index="0" speed="20.12" length="21.45" width="3.20" shape="654.73,5535.03 650.25,5539.77 646.96,5542.96 643.63,5545.88 639.03,5549.86"/>
        <lane id=":42172936-0fbb-5e74-b569-beb9c08445ee_5_1" index="1" speed="20.12" length="21.45" width="3.20" shape="652.39,5532.86 647.99,5537.51 644.78,5540.62 641.50,5543.49 636.92,5547.45"/>
    </edge>
    <edge id=":42172936-0fbb-5e74-b569-beb9c08445ee_7" function="internal">
        <lane id=":42172936-0fbb-5e74-b569-beb9c08445ee_7_0" index="0" speed="10.00" length="4.39" width="3.20" shape="650.03,5530.69 646.50,5533.29"/>
    </edge>
    <edge id=":42172936-0fbb-5e74-b569-beb9c08445ee_8" function="internal">
        <lane id=":42172936-0fbb-5e74-b569-beb9c08445ee_8_0" index="0" speed="3.67" length="1.47" width="3.20" shape="650.03,5530.69 648.60,5531.03"/>
    </edge>
    <edge id=":42172936-0fbb-5e74-b569-beb9c08445ee_20" function="internal">
        <lane id=":42172936-0fbb-5e74-b569-beb9c08445ee_20_0" index="0" speed="10.00" length="18.40" width="3.20" shape="646.50,5533.29 645.75,5533.84 640.99,5534.53 635.76,5532.74 630.05,5528.47"/>
    </edge>
    <edge id=":42172936-0fbb-5e74-b569-beb9c08445ee_21" function="internal">
        <lane id=":42172936-0fbb-5e74-b569-beb9c08445ee_21_0" index="0" speed="3.67" length="3.29" width="3.20" shape="648.60,5531.03 647.73,5530.78 647.41,5529.92 647.65,5528.47"/>
    </edge>
    <edge id=":42172936-0fbb-5e74-b569-beb9c08445ee_9" function="internal">
        <lane id=":42172936-0fbb-5e74-b569-beb9c08445ee_9_0" index="0" speed="7.53" length="12.48" width="3.20" shape="634.42,5523.79 637.76,5526.42 640.69,5527.72 643.20,5527.68 645.29,5526.30"/>
    </edge>
    <edge id=":42172936-0fbb-5e74-b569-beb9c08445ee_10" function="internal">
        <lane id=":42172936-0fbb-5e74-b569-beb9c08445ee_10_0" index="0" speed="11.18" length="31.65" width="3.20" shape="634.42,5523.79 640.10,5530.01 645.72,5537.34 650.58,5544.10 653.99,5548.61"/>
    </edge>
    <edge id=":42172936-0fbb-5e74-b569-beb9c08445ee_11" function="internal">