<?xml version="1.0" encoding="UTF-8"?>

<!-- generated on 2025-05-27 15:05:51 by Eclipse SUMO netconvert Version 1.21.0
<netconvertConfiguration xmlns:xsi="http://www.w3.org/2001/XMLSchema-instance" xsi:noNamespaceSchemaLocation="http://sumo.dlr.de/xsd/netconvertConfiguration.xsd">

    <input>
        <sumo-net-file value="c:/Users/xh8/ornl_work/github_workspace/Real-Twin-Dev/datasets/chattanooga/output/OpenDrive/chatt.net.xml"/>
    </input>

    <output>
        <opendrive-output value="c:/Users/xh8/ornl_work/github_workspace/Real-Twin-Dev/datasets/chattanooga/output/OpenDrive/chatt.xodr"/>
    </output>

    <processing>
        <geometry.min-radius.fix.railways value="false"/>
        <geometry.max-grade.fix value="false"/>
        <offset.disable-normalization value="true"/>
        <lefthand value="0"/>
    </processing>

    <junctions>
        <no-turnarounds value="true"/>
        <junctions.corner-detail value="5"/>
        <junctions.limit-turn-speed value="5.50"/>
    </junctions>

    <pedestrian>
        <walkingareas value="0"/>
    </pedestrian>

</netconvertConfiguration>
-->

<OpenDRIVE>
    <header revMajor="1" revMinor="4" name="" version="1.00" date="Tue May 27 15:05:51 2025" north="919.81" south="0.00" east="1377.14" west="0.00">
        <geoReference>
 <![CDATA[
 +proj=utm +zone=16 +ellps=WGS84 +datum=WGS84 +units=m +no_defs
]]>
        </geoReference>
        <offset x="-667733.87" y="-3878705.38" z="0.00" hdg="0"/>
    </header>
    <road name="" length="390.19380399" id="280" junction="-1">
        <link>
            <predecessor elementType="junction" elementId="1"/>
            <successor elementType="junction" elementId="2"/>
        </link>
        <type s="0" type="town"/>
        <planView>
            <geometry s="0.00000000" x="1377.14000000" y="221.29000000" hdg="2.75249122" length="110.18639819">
                <line/>
            </geometry>
            <geometry s="110.18639819" x="1275.19000065" y="263.08999973" hdg="2.75249122" length="1.50617486">
                <paramPoly3 aU="0.00000000" bU="1.12962808" cU="1.12959833" dU="-0.75308459" aV="-0.00000000" bV="0.00000000" cV="-0.01665819" dV="0.00731931" pRange="normalized"/>
            </geometry>
            <geometry s="111.69257305" x="1273.79998522" y="263.67000623" hdg="2.74243602" length="95.38712173">
                <line/>
            </geometry>
            <geometry s="207.07969478" x="1185.91133212" y="300.74139207" hdg="2.74243602" length="15.74000000">
                <paramPoly3 aU="0.00000000" bU="11.80500000" cU="11.80500000" dU="-7.87000000" aV="-0.00000000" bV="-0.00000000" cV="-0.00045493" dV="0.00015164" pRange="normalized"/>
            </geometry>
            <geometry s="222.81969478" x="1171.40878575" y="306.85888737" hdg="2.74239748" length="40.50208389">
                <line/>
            </geometry>
            <geometry s="263.32177866" x="1134.09121425" y="322.60111263" hdg="2.74239748" length="15.74000000">
                <paramPoly3 aU="0.00000000" bU="11.80500000" cU="11.80500000" dU="-7.87000000" aV="-0.00000000" bV="-0.00000000" cV="-0.00004153" dV="0.00002205" pRange="normalized"/>
            </geometry>
            <geometry s="279.06177866" x="1119.58879332" y="328.71890532" hdg="2.74239605" length="2.93864334">
                <paramPoly3 aU="0.00000000" bU="2.20398250" cU="2.20398250" dU="-1.46932167" aV="-0.00000000" bV="-0.00000000" cV="-0.00002769" dV="0.00002462" pRange="normalized"/>
            </geometry>
            <geometry s="282.00042200" x="1116.88120626" y="329.86109486" hdg="2.74240444" length="15.74000000">
                <paramPoly3 aU="0.00000000" bU="11.80500000" cU="11.80500000" dU="-7.87000000" aV="-0.00000000" bV="0.00000000" cV="-0.00006978" dV="0.00009750" pRange="normalized"/>
            </geometry>
            <geometry s="297.74042200" x="1102.37872442" y="335.97874314" hdg="2.74241740" length="92.45338199">
                <line/>
            </geometry>
        </planView>
        <elevationProfile>
            <elevation s="0" a="0.00" b="0" c="0" d="0"/>
        </elevationProfile>
        <lateralProfile/>
        <lanes>
            <laneSection s="0">
                <center>
                    <lane id="0" type="none" level="true">
                        <link/>
                        <roadMark sOffset="0" type="solid" weight="standard" color="standard" width="0.13"/>
                    </lane>
                </center>
                <right>
                    <lane id="-1" type="driving" level="true">
                        <link/>
                        <width sOffset="0" a="3.20" b="0" c="0" d="0"/>
                        <roadMark sOffset="0" type="broken" weight="standard" color="standard" width="0.13"/>
                        <speed sOffset="0" max="15.74"/>
                    </lane>
                    <lane id="-2" type="driving" level="true">
                        <link/>
                        <width sOffset="0" a="3.20" b="0" c="0" d="0"/>
                        <roadMark sOffset="0" type="solid" weight="standard" color="standard" width="0.13"/>
                        <speed sOffset="0" max="15.74"/>
                    </lane>
                 </right>
            </laneSection>
        </lanes>
        <objects/>
        <signals>
            <signal id="202698315_10" s="390.19380399" t="-1.60000000" orientation="+" dynamic="yes" zOffset="5" country="OpenDRIVE" type="1000001" subtype="-1" height="0.78000000" width="0.26000000">
                <validity fromLane="-1" toLane="-1"/>
            </signal>
            <signal id="202698315_5" s="390.19380399" t="-4.80000000" orientation="+" dynamic="yes" zOffset="5" country="OpenDRIVE" type="1000011" subtype="20" height="0.78000000" width="0.26000000">
                <validity fromLane="-2" toLane="-2"/>
            </signal>
            <signal id="202698315_6" s="390.19380399" t="-4.80000000" orientation="+" dynamic="yes" zOffset="5" country="OpenDRIVE" type="1000011" subtype="30" height="0.78000000" width="0.26000000">
                <validity fromLane="-2" toLane="-2"/>
            </signal>
            <signal id="202698315_7" s="390.19380399" t="-1.60000000" orientation="+" dynamic="yes" zOffset="5" country="OpenDRIVE" type="1000011" subtype="30" height="0.78000000" width="0.26000000">
                <validity fromLane="-1" toLane="-1"/>
            </signal>
            <signal id="202698315_8" s="390.19380399" t="-1.60000000" orientation="+" dynamic="yes" zOffset="5" country="OpenDRIVE" type="1000011" subtype="30" height="0.78000000" width="0.26000000">
                <validity fromLane="-1" toLane="-1"/>
            </signal>
            <signal id="202698315_9" s="390.19380399" t="-1.60000000" orientation="+" dynamic="yes" zOffset="5" country="OpenDRIVE" type="1000011" subtype="10" height="0.78000000" width="0.26000000">
                <validity fromLane="-1" toLane="-1"/>
            </signal>
        </signals>
    </road>
    <road name="" length="32.97351107" id="281" junction="-1">
        <link>
            <predecessor elementType="junction" elementId="3"/>
            <successor elementType="junction" elementId="4"/>
        </link>
        <type s="0" type="town"/>
        <planView>
            <geometry s="0.00000000" x="859.64309229" y="438.29070296" hdg="2.74707710" length="32.97351107">
                <line/>
            </geometry>
        </planView>
        <elevationProfile>
            <elevation s="0" a="0.00" b="0" c="0" d="0"/>
        </elevationProfile>
        <lateralProfile/>
        <lanes>
            <laneSection s="0">
                <center>
                    <lane id="0" type="none" level="true">
                        <link/>
                        <roadMark sOffset="0" type="solid" weight="standard" color="standard" width="0.13"/>
                    </lane>
                </center>
                <right>
                    <lane id="-1" type="driving" level="true">
                        <link/>
                        <width sOffset="0" a="3.20" b="0" c="0" d="0"/>
                        <roadMark sOffset="0" type="broken" weight="standard" color="standard" width="0.13"/>
                        <speed sOffset="0" max="15.74"/>
                    </lane>
                    <lane id="-2" type="driving" level="true">
                        <link/>
                        <width sOffset="0" a="3.20" b="0" c="0" d="0"/>
                        <roadMark sOffset="0" type="solid" weight="standard" color="standard" width="0.13"/>
                        <speed sOffset="0" max="15.74"/>
                    </lane>
                 </right>
            </laneSection>
        </lanes>
        <objects/>
        <signals/>
    </road>
    <road name="" length="10.62577208" id="282" junction="-1">
        <link>
            <predecessor elementType="junction" elementId="3"/>
            <successor elementType="junction" elementId="5"/>
        </link>
        <type s="0" type="town"/>
        <planView>
            <geometry s="0.00000000" x="862.22610942" y="425.90353544" hdg="-1.97880414" length="10.62577208">
                <line/>
            </geometry>
        </planView>
        <elevationProfile>
            <elevation s="0" a="0.00" b="0" c="0" d="0"/>
        </elevationProfile>
        <lateralProfile/>
        <lanes>
            <laneSection s="0">
                <center>
                    <lane id="0" type="none" level="true">
                        <link/>
                        <roadMark sOffset="0" type="solid" weight="standard" color="standard" width="0.13"/>
                    </lane>
                </center>
                <right>
                    <lane id="-1" type="driving" level="true">
                        <link/>
                        <width sOffset="0" a="3.20" b="0" c="0" d="0"/>
                        <roadMark sOffset="0" type="solid" weight="standard" color="standard" width="0.13"/>
                        <speed sOffset="0" max="23.34"/>
                    </lane>
                 </right>
            </laneSection>
        </lanes>
        <objects/>
        <signals/>
    </road>
    <road name="" length="78.06270652" id="283" junction="-1">
        <link>
            <predecessor elementType="junction" elementId="3"/>
            <successor elementType="junction" elementId="6"/>
        </link>
        <type s="0" type="town"/>
        <planView>
            <geometry s="0.00000000" x="870.45551244" y="445.06863841" hdg="1.16763614" length="32.05098815">
                <line/>
            </geometry>
            <geometry s="32.05098815" x="883.02998423" y="474.54996302" hdg="1.16763614" length="7.17342295">
                <paramPoly3 aU="0.00000000" bU="5.37999823" cU="5.38088588" dU="-3.58755465" aV="0.00000000" bV="0.00000000" cV="-0.08402867" dV="0.08867725" pRange="normalized"/>
            </geometry>
            <geometry s="39.22441110" x="885.84000001" y="481.15000003" hdg="1.18584801" length="19.16569259">
                <paramPoly3 aU="0.00000000" bU="14.37424448" cU="14.37329885" dU="-9.58229810" aV="0.00000000" bV="-0.00000000" cV="0.28561198" dV="-0.15962725" pRange="normalized"/>
            </geometry>
            <geometry s="58.39010369" x="892.91999998" y="498.95999994" hdg="1.19227220" length="19.67260284">
                <line/>
            </geometry>
        </planView>
        <elevationProfile>
            <elevation s="0" a="0.00" b="0" c="0" d="0"/>
        </elevationProfile>
        <lateralProfile/>
        <lanes>
            <laneSection s="0">
                <center>
                    <lane id="0" type="none" level="true">
                        <link/>
                        <roadMark sOffset="0" type="solid" weight="standard" color="standard" width="0.13"/>
                    </lane>
                </center>
                <right>
                    <lane id="-1" type="driving" level="true">
                        <link/>
                        <width sOffset="0" a="3.20" b="0" c="0" d="0"/>
                        <roadMark sOffset="0" type="solid" weight="standard" color="standard" width="0.13"/>
                        <speed sOffset="0" max="23.34"/>
                    </lane>
                 </right>
            </laneSection>
        </lanes>
        <objects/>
        <signals/>
    </road>
    <road name="" length="79.78160215" id="284" junction="-1">
        <link>
            <predecessor elementType="junction" elementId="3"/>
            <successor elementType="junction" elementId="7"/>
        </link>
        <type s="0" type="town"/>
        <planView>
            <geometry s="0.00000000" x="873.02945197" y="432.68268287" hdg="-0.39894805" length="42.92113871">
                <line/>
            </geometry>
            <geometry s="42.92113871" x="912.57999940" y="416.01000025" hdg="-0.39894805" length="13.00088126">
                <paramPoly3 aU="0.00000000" bU="9.75066095" cU="9.75066096" dU="-6.50044065" aV="0.00000000" bV="-0.00000000" cV="0.00124339" dV="-0.00104597" pRange="normalized"/>
            </geometry>
            <geometry s="55.92201997" x="924.55999988" y="410.96000005" hdg="-0.39901483" length="8.67194837">
                <paramPoly3 aU="0.00000000" bU="6.50396008" cU="6.50397337" dU="-4.33598674" aV="0.00000000" bV="-0.00000000" cV="-0.01644149" dV="0.01537589" pRange="normalized"/>
            </geometry>
            <geometry s="64.59396834" x="932.55030081" y="407.58987365" hdg="-0.39697842" length="15.18763381">
                <line/>
            </geometry>
        </planView>
        <elevationProfile>
            <elevation s="0" a="0.00" b="0" c="0" d="0"/>
        </elevationProfile>
        <lateralProfile/>
        <lanes>
            <laneSection s="0">
                <center>
                    <lane id="0" type="none" level="true">
                        <link/>
                        <roadMark sOffset="0" type="solid" weight="standard" color="standard" width="0.13"/>
                    </lane>
                </center>
                <right>
                    <lane id="-1" type="driving" level="true">
                        <link/>
                        <width sOffset="0" a="3.20" b="0" c="0" d="0"/>
                        <roadMark sOffset="0" type="broken" weight="standard" color="standard" width="0.13"/>
                        <speed sOffset="0" max="15.74"/>
                    </lane>
                    <lane id="-2" type="driving" level="true">
                        <link/>
                        <width sOffset="0" a="3.20" b="0" c="0" d="0"/>
                        <roadMark sOffset="0" type="solid" weight="standard" color="standard" width="0.13"/>
                        <speed sOffset="0" max="15.74"/>
                    </lane>
                 </right>
            </laneSection>
        </lanes>
        <objects/>
        <signals/>
    </road>
    <road name="" length="177.56775498" id="285" junction="-1">
        <link>
            <predecessor elementType="junction" elementId="8"/>
            <successor elementType="junction" elementId="9"/>
        </link>
        <type s="0" type="town"/>
        <planView>
            <geometry s="0.00000000" x="549.55466272" y="572.24835110" hdg="2.73679549" length="8.27541819">
                <line/>
            </geometry>
            <geometry s="8.27541819" x="541.94804479" y="575.50747826" hdg="2.73679549" length="17.98989544">
                <paramPoly3 aU="0.00000000" bU="13.49241143" cU="13.49223540" dU="-8.99488301" aV="-0.00000000" bV="-0.00000000" cV="0.12619693" dV="-0.06101399" pRange="normalized"/>
            </geometry>
            <geometry s="26.26531362" x="525.38650115" y="582.53251371" hdg="2.74193558" length="12.95331889">
                <paramPoly3 aU="0.00000000" bU="9.71489605" cU="9.71572099" dU="-6.47745105" aV="-0.00000000" bV="-0.00000000" cV="0.21491170" dV="-0.18762518" pRange="normalized"/>
            </geometry>
            <geometry s="39.21863251" x="513.44349885" y="587.54748629" hdg="2.72823947" length="17.98411410">
                <paramPoly3 aU="0.00000000" bU="13.48751470" cU="13.49404956" dU="-8.99937624" aV="-0.00000000" bV="-0.00000000" cV="-0.09401333" dV="-0.11067310" pRange="normalized"/>
            </geometry>
            <geometry s="57.20274661" x="497.05800654" y="594.95806147" hdg="2.68967233" length="20.52668340">
                <line/>
            </geometry>
            <geometry s="77.72943001" x="478.59199346" y="603.92193853" hdg="2.68967233" length="17.98902631">
                <paramPoly3 aU="0.00000000" bU="13.49169022" cU="13.48972685" dU="-8.99357642" aV="-0.00000000" bV="0.00000000" cV="-0.40573254" dV="0.20864882" pRange="normalized"/>
            </geometry>
            <geometry s="95.71845632" x="462.49601437" y="611.95441701" hdg="2.67592131" length="6.16119412">
                <paramPoly3 aU="0.00000000" bU="4.62059005" cU="4.62259251" dU="-3.08260099" aV="-0.00000000" bV="-0.00000000" cV="-0.30635358" dV="0.25607535" pRange="normalized"/>
            </geometry>
            <geometry s="101.87965044" x="457.01398563" y="614.76558299" hdg="2.70958547" length="17.96441111">
                <paramPoly3 aU="0.00000000" bU="13.47122260" cU="13.49915370" dU="-9.01059349" aV="-0.00000000" bV="0.00000000" cV="-0.17626167" dV="0.43386302" pRange="normalized"/>
            </geometry>
            <geometry s="119.84406155" x="440.59636244" y="622.05130917" hdg="2.78009522" length="57.72369343">
                <line/>
            </geometry>
        </planView>
        <elevationProfile>
            <elevation s="0" a="0.00" b="0" c="0" d="0"/>
        </elevationProfile>
        <lateralProfile/>
        <lanes>
            <laneSection s="0">
                <center>
                    <lane id="0" type="none" level="true">
                        <link/>
                        <roadMark sOffset="0" type="solid" weight="standard" color="standard" width="0.13"/>
                    </lane>
                </center>
                <right>
                    <lane id="-1" type="driving" level="true">
                        <link/>
                        <width sOffset="0" a="3.20" b="0" c="0" d="0"/>
                        <roadMark sOffset="0" type="broken" weight="standard" color="standard" width="0.13"/>
                        <speed sOffset="0" max="17.99"/>
                    </lane>
                    <lane id="-2" type="driving" level="true">
                        <link/>
                        <width sOffset="0" a="3.20" b="0" c="0" d="0"/>
                        <roadMark sOffset="0" type="solid" weight="standard" color="standard" width="0.13"/>
                        <speed sOffset="0" max="17.99"/>
                    </lane>
                 </right>
            </laneSection>
        </lanes>
        <objects/>
        <signals>
            <signal id="202568610_3" s="177.56775498" t="-4.80000000" orientation="+" dynamic="yes" zOffset="5" country="OpenDRIVE" type="1000011" subtype="30" height="0.78000000" width="0.26000000">
                <validity fromLane="-2" toLane="-2"/>
            </signal>
            <signal id="202568610_4" s="177.56775498" t="-1.60000000" orientation="+" dynamic="yes" zOffset="5" country="OpenDRIVE" type="1000011" subtype="30" height="0.78000000" width="0.26000000">
                <validity fromLane="-1" toLane="-1"/>
            </signal>
            <signal id="202568610_5" s="177.56775498" t="-1.60000000" orientation="+" dynamic="yes" zOffset="5" country="OpenDRIVE" type="1000011" subtype="10" height="0.78000000" width="0.26000000">
                <validity fromLane="-1" toLane="-1"/>
            </signal>
            <signal id="202568610_6" s="177.56775498" t="-1.60000000" orientation="+" dynamic="yes" zOffset="5" country="OpenDRIVE" type="1000001" subtype="-1" height="0.78000000" width="0.26000000">
                <validity fromLane="-1" toLane="-1"/>
            </signal>
        </signals>
    </road>
    <road name="" length="69.89153511" id="286" junction="-1">
        <link>
            <predecessor elementType="junction" elementId="8"/>
            <successor elementType="junction" elementId="10"/>
        </link>
        <type s="0" type="town"/>
        <planView>
            <geometry s="0.00000000" x="565.27550781" y="565.21833685" hdg="-0.44492841" length="69.89153511">
                <line/>
            </geometry>
        </planView>
        <elevationProfile>
            <elevation s="0" a="0.00" b="0" c="0" d="0"/>
        </elevationProfile>
        <lateralProfile/>
        <lanes>
            <laneSection s="0">
                <center>
                    <lane id="0" type="none" level="true">
                        <link/>
                        <roadMark sOffset="0" type="solid" weight="standard" color="standard" width="0.13"/>
                    </lane>
                </center>
                <right>
                    <lane id="-1" type="driving" level="true">
                        <link/>
                        <width sOffset="0" a="3.20" b="0" c="0" d="0"/>
                        <roadMark sOffset="0" type="broken" weight="standard" color="standard" width="0.13"/>
                        <speed sOffset="0" max="15.74"/>
                    </lane>
                    <lane id="-2" type="driving" level="true">
                        <link/>
                        <width sOffset="0" a="3.20" b="0" c="0" d="0"/>
                        <roadMark sOffset="0" type="solid" weight="standard" color="standard" width="0.13"/>
                        <speed sOffset="0" max="15.74"/>
                    </lane>
                 </right>
            </laneSection>
        </lanes>
        <objects/>
        <signals>
            <signal id="202678527_14" s="69.89153511" t="-4.80000000" orientation="+" dynamic="yes" zOffset="5" country="OpenDRIVE" type="1000011" subtype="20" height="0.78000000" width="0.26000000">
                <validity fromLane="-2" toLane="-2"/>
            </signal>
            <signal id="202678527_15" s="69.89153511" t="-4.80000000" orientation="+" dynamic="yes" zOffset="5" country="OpenDRIVE" type="1000011" subtype="30" height="0.78000000" width="0.26000000">
                <validity fromLane="-2" toLane="-2"/>
            </signal>
            <signal id="202678527_16" s="69.89153511" t="-1.60000000" orientation="+" dynamic="yes" zOffset="5" country="OpenDRIVE" type="1000011" subtype="30" height="0.78000000" width="0.26000000">
                <validity fromLane="-1" toLane="-1"/>
            </signal>
            <signal id="202678527_17" s="69.89153511" t="-1.60000000" orientation="+" dynamic="yes" zOffset="5" country="OpenDRIVE" type="1000011" subtype="10" height="0.78000000" width="0.26000000">
                <validity fromLane="-1" toLane="-1"/>
            </signal>
            <signal id="202678527_18" s="69.89153511" t="-1.60000000" orientation="+" dynamic="yes" zOffset="5" country="OpenDRIVE" type="1000001" subtype="-1" height="0.78000000" width="0.26000000">
                <validity fromLane="-1" toLane="-1"/>
            </signal>
        </signals>
    </road>
    <road name="" length="377.79032221" id="287" junction="-1">
        <link>
            <predecessor elementType="junction" elementId="8"/>
        </link>
        <type s="0" type="town"/>
        <planView>
            <geometry s="0.00000000" x="560.23246583" y="578.79735692" hdg="1.17057992" length="0.20000000">
                <line/>
            </geometry>
            <geometry s="0.20000000" x="560.31038936" y="578.98155226" hdg="1.17057992" length="15.83433775">
                <paramPoly3 aU="0.00000000" bU="11.87575332" cU="11.87575332" dU="-7.91716888" aV="0.00000000" bV="0.00000000" cV="-0.00027777" dV="0.00013765" pRange="normalized"/>
            </geometry>
            <geometry s="16.03433775" x="566.47985592" y="593.56455382" hdg="1.17056792" length="179.23443711">
                <line/>
            </geometry>
            <geometry s="195.26877486" x="636.31473864" y="758.63445599" hdg="1.17056792" length="23.32584322">
                <paramPoly3 aU="0.00000000" bU="17.49159833" cU="17.49157783" dU="-11.67890026" aV="0.00000000" bV="-0.00000000" cV="-1.36968924" dV="0.45726163" pRange="normalized"/>
            </geometry>
            <geometry s="218.59461808" x="646.23507393" y="779.74153412" hdg="1.09230230" length="32.78876144">
                <line/>
            </geometry>
            <geometry s="251.38337952" x="661.33242518" y="808.84776819" hdg="1.09230230" length="23.27226217">
                <paramPoly3 aU="0.00000000" bU="17.44094087" cU="17.44047374" dU="-11.71192639" aV="0.00000000" bV="0.00000000" cV="-2.99235461" dV="1.00472522" pRange="normalized"/>
            </geometry>
            <geometry s="274.65564169" x="673.76504814" y="828.49988618" hdg="0.92114833" length="103.13468053">
                <line/>
            </geometry>
        </planView>
        <elevationProfile>
            <elevation s="0" a="0.00" b="0" c="0" d="0"/>
        </elevationProfile>
        <lateralProfile/>
        <lanes>
            <laneSection s="0">
                <center>
                    <lane id="0" type="none" level="true">
                        <link/>
                        <roadMark sOffset="0" type="solid" weight="standard" color="standard" width="0.13"/>
                    </lane>
                </center>
                <right>
                    <lane id="-1" type="driving" level="true">
                        <link/>
                        <width sOffset="0" a="3.20" b="0" c="0" d="0"/>
                        <roadMark sOffset="0" type="broken" weight="standard" color="standard" width="0.13"/>
                        <speed sOffset="0" max="23.34"/>
                    </lane>
                    <lane id="-2" type="driving" level="true">
                        <link/>
                        <width sOffset="0" a="3.20" b="0" c="0" d="0"/>
                        <roadMark sOffset="0" type="solid" weight="standard" color="standard" width="0.13"/>
                        <speed sOffset="0" max="23.34"/>
                    </lane>
                 </right>
            </laneSection>
        </lanes>
        <objects/>
        <signals/>
    </road>
    <road name="" length="177.56775498" id="288" junction="-1">
        <link>
            <predecessor elementType="junction" elementId="9"/>
            <successor elementType="junction" elementId="8"/>
        </link>
        <type s="0" type="town"/>
        <planView>
            <geometry s="0.00000000" x="386.60345137" y="642.46675275" hdg="-0.36149744" length="57.72369343">
                <line/>
            </geometry>
            <geometry s="57.72369343" x="440.59636244" y="622.05130917" hdg="-0.36149744" length="17.96441111">
                <paramPoly3 aU="0.00000000" bU="13.47122260" cU="13.41972030" dU="-8.95763789" aV="0.00000000" bV="0.00000000" cV="-2.07592293" dV="1.06759338" pRange="normalized"/>
            </geometry>
            <geometry s="75.68810454" x="457.01398563" y="614.76558299" hdg="-0.43200719" length="6.16119412">
                <paramPoly3 aU="0.00000000" bU="4.62059005" cU="4.60704429" dU="-3.07223551" aV="0.00000000" bV="-0.00000000" cV="-0.61728517" dV="0.35968382" pRange="normalized"/>
            </geometry>
            <geometry s="81.84929866" x="462.49601437" y="611.95441701" hdg="-0.46567134" length="17.98902631">
                <paramPoly3 aU="0.00000000" bU="13.49169022" cU="13.49275499" dU="-8.99559518" aV="0.00000000" bV="0.00000000" cV="-0.03468392" dV="0.08496216" pRange="normalized"/>
            </geometry>
            <geometry s="99.83832497" x="478.59199346" y="603.92193853" hdg="-0.45192033" length="20.52668340">
                <line/>
            </geometry>
            <geometry s="120.36500836" x="497.05800654" y="594.95806147" hdg="-0.45192033" length="17.98411410">
                <paramPoly3 aU="0.00000000" bU="13.48751470" cU="13.47761046" dU="-8.98841683" aV="0.00000000" bV="-0.00000000" cV="0.94640045" dV="-0.45758498" pRange="normalized"/>
            </geometry>
            <geometry s="138.34912246" x="513.44349885" y="587.54748629" hdg="-0.41335318" length="12.95331889">
                <paramPoly3 aU="0.00000000" bU="9.71489605" cU="9.71095522" dU="-6.47427387" aV="0.00000000" bV="0.00000000" cV="0.48100713" dV="-0.27632071" pRange="normalized"/>
            </geometry>
            <geometry s="151.30244135" x="525.38650115" y="582.53251371" hdg="-0.39965707" length="17.98989544">
                <paramPoly3 aU="0.00000000" bU="13.49241143" cU="13.49252759" dU="-8.99507781" aV="0.00000000" bV="0.00000000" cV="-0.01250764" dV="-0.01477887" pRange="normalized"/>
            </geometry>
            <geometry s="169.29233679" x="541.94804479" y="575.50747826" hdg="-0.40479716" length="8.27541819">
                <line/>
            </geometry>
        </planView>
        <elevationProfile>
            <elevation s="0" a="0.00" b="0" c="0" d="0"/>
        </elevationProfile>
        <lateralProfile/>
        <lanes>
            <laneSection s="0">
                <center>
                    <lane id="0" type="none" level="true">
                        <link/>
                        <roadMark sOffset="0" type="solid" weight="standard" color="standard" width="0.13"/>
                    </lane>
                </center>
                <right>
                    <lane id="-1" type="driving" level="true">
                        <link/>
                        <width sOffset="0" a="3.20" b="0" c="0" d="0"/>
                        <roadMark sOffset="0" type="broken" weight="standard" color="standard" width="0.13"/>
                        <speed sOffset="0" max="17.99"/>